LAMMPS (22 Jul 2025)
KOKKOS mode with Kokkos version 4.6.2 is enabled
  will use up to 1 GPU(s) per node
package kokkos
package kokkos newton on neigh half
units metal
atom_style molecular
boundary p p p

read_data ./C_shell_porous_Cu_core_CO2_d2_rlx_MD
Reading data file ...
  orthogonal box = (0 0 0) to (60 60 60)
  reading atoms ...
  7958 atoms
  scanning bonds ...
  orthogonal box = (0 0 0) to (60 60 60)
  reading bonds ...
  1755 bonds
Finding 1-2 1-3 1-4 neighbors ...
     2 = max # of 1-2 neighbors
     1 = max # of 1-3 neighbors
     1 = max # of 1-4 neighbors
     2 = max # of special neighbors

mass 1 12.01
mass 2 63.55
mass 3 15.99

pair_style      reaxff NULL checkqeq no
pair_coeff      * * jp046244d_si_002.reaxff C Cu O

fix charge all property/atom q

#kspace_style   pppm 1.0e-4
#kspace_modify gewald 1.0e-4

bond_style harmonic
bond_coeff 1 350.0 1.42
neighbor 0.3 bin
neigh_modify delay 5

thermo          100
thermo_style    custom step cpu cpuremain temp press vol etotal pe ke

print           "Starting energy minimization..."
Starting energy minimization...
min_style       cg
minimize        1.0e-4 1.0e-6 1000 10000

CITE-CITE-CITE-CITE-CITE-CITE-CITE-CITE-CITE-CITE-CITE-CITE-CITE

Your simulation uses code contributions which should be cited:

- pair reaxff command: doi:10.1016/j.parco.2011.08.005

@Article{Aktulga12,
 author = {H. M. Aktulga and J. C. Fogarty and S. A. Pandit and A. Y. Grama},
 title = {Parallel Reactive Molecular Dynamics: {N}umerical Methods and Algorithmic Techniques},
 journal = {Parallel Computing},
 year =    2012,
 volume =  38,
 number =  {4--5},
 pages =   {245--259}
}

CITE-CITE-CITE-CITE-CITE-CITE-CITE-CITE-CITE-CITE-CITE-CITE-CITE

For more information see https://docs.lammps.org/err0027 (src/domain.cpp:1052)
Step          CPU          CPULeft          Temp          Press          Volume         TotEng         PotEng         KinEng
0   0              0              0              2475303.6      216000        -651892.8      -651892.8       0
Loop time of 1.47046 on 1 procs for 30 steps with 7958 atoms

Minimization stats:
  Stopping criterion = energy tolerance
  Energy initial, next-to-last, final =
  Force two-norm initial, final = 65218.349 24783.592
  Force max component initial, final = 20002.111 8097.6911
  Final line search alpha, max atom move = 7.7724431e-06 0.062938843
  Iterations, force evaluations = 30 55

# Equilibration in NVT ensemble
print           "Starting NVT equilibration..."
Starting NVT equilibration...
velocity        all create 300.0 12345 rot yes dist gaussian
fix             1 all nvt temp 300.0 300.0 0.1
timestep        0.0001
run             10000
For more information see https://docs.lammps.org/err0027 (src/domain.cpp:1052)
Step          CPU          CPULeft          Temp          Press          Volume         TotEng         PotEng         KinEng
30   0              0              300            656111.84      216000        -773638.62     -773947.18      308.55689
Averages over the last 51 of 102 rows, steps 5100 to 10030:
Temp Press Volume TotEng PotEng KinEng
21644.2 10468 216000 -783985 -806247 22261.5
Loop time of 202.854 on 1 procs for 10000 steps with 7958 atoms

unfix           1

# NPT ensemble at 1.0 MPa (10 atm, since 1 atm = 0.101325 MPa, 1.0 MPa â‰ˆ 9.87 atm)
print           "Starting NPT production run at 1.0 MPa..."
Starting NPT production run at 1.0 MPa...
fix             2 all npt temp 300.0 300.0 0.1 iso 9.87 9.87 1.0
variable        step equal step
variable        press equal press
variable        vol equal vol
variable        etotal equal etotal
fix             3 all ave/time 10 1 10 v_press v_vol v_etotal file pressure_volume.dat

# Dump configuration files
dump            1 all atom 500 trajectory.lammpstrj
dump_modify     1 sort id

# Run NPT simulation
run             500000
For more information see https://docs.lammps.org/err0027 (src/domain.cpp:1052)
Step          CPU          CPULeft          Temp          Press          Volume         TotEng         PotEng         KinEng
10030   0              0              20004.414      44551.947      216000        -784469.51     -805044.51      20575
Averages over the last 35 of 69 rows, steps 13400 to 16800:
Temp Press Volume TotEng PotEng KinEng
30801 -6684.43 300037 -740334 -772014 31679.6
ERROR: Non-numeric pressure - simulation unstable
For more information see https://docs.lammps.org/err0006 (src/fix_nh.cpp:1044)
Last input line: run 500000
